51
-1.3612201599880632e+03 frame 22   xyz file generated by TeraChem
    Fe     6.3103983951    4.5638550401    4.6447315363
     N     5.5144494822    2.6439251975    5.0180433475
     N     6.5436584184    4.4163244658    6.7630781141
     N     8.0707360436    3.3577593635    4.6511669888
     N     4.3250104458    5.1145655083    4.8400843948
     N     5.9050516399    4.0014533135    2.6839563121
     C     6.6553620227    5.4057353917    7.6585662359
     C     6.7837817283    5.1395342388    9.0210076403
     C     6.7905727380    3.8129047334    9.4487792868
     C     6.6773636419    2.7833052745    8.5063622870
     C     6.5596695927    3.1283080464    7.1686771543
     C     6.5274430389    2.1403146395    6.0143285942
     C     7.8891099594    2.2117753483    5.3408421883
     C     8.8932196256    1.2643405042    5.4648827894
     C    10.1272189064    1.5247871523    4.8559183046
     C    10.3096882702    2.7147840769    4.1533636244
     C     9.2486707182    3.6156666024    4.0695392303
     C     3.8333390972    6.3222522056    4.5119332946
     C     2.4658774899    6.5638753890    4.4677751470
     C     1.5926004120    5.5138195961    4.7557275160
     C     2.1107974128    4.2601577719    5.0892899822
     C     3.4900126329    4.0940029504    5.1315444162
     C     4.1428534633    2.8116405430    5.5909866041
     C     5.4985712075    1.8598407563    3.7439267680
     C     5.3918670280    2.7615170804    2.5375713345
     C     4.8816250660    2.3327161128    1.3180507898
     C     4.9216858812    3.2038793734    0.2267388479
     C     5.4662535390    4.4788177412    0.3863026242
     C     5.9431699499    4.8467601617    1.6386147623
     H     6.6446897564    6.4131430591    7.2574819723
     H     6.8774813559    5.9586583846    9.7250934206
     H     6.8845881498    3.5758490181   10.5036519786
     H     6.6844485875    1.7418445624    8.8103239089
     H     6.2962356569    1.1263028092    6.3554796398
     H     8.7243871491    0.3483524860    6.0212600709
     H    10.9344529753    0.8036612614    4.9340874694
     H    11.2556244141    2.9482075573    3.6777436778
     H     9.3272389123    4.5600895438    3.5420664735
     H     4.5718861474    7.0824574411    4.2829086713
     H     2.0975205035    7.5495469056    4.2067057063
     H     0.5186586303    5.6662951391    4.7199940564
     H     1.4522279807    3.4289368834    5.3191972477
     H     4.4674446677    1.3346373991    1.2186892599
     H     4.5308067775    2.8888377000   -0.7354645689
     H     5.5161373677    5.1791499963   -0.4398650176
     H     3.5212399535    1.9444090968    5.3503599969
     H     4.2334491241    2.8465952714    6.6806264962
     H     4.6898608450    1.1235720437    3.7612334010
     H     6.4369194679    1.3017932264    3.6732720626
     O     6.9882001018    6.0023329630    4.3897048115
     H     6.3656844313    5.8258160554    1.8367604221
