52
	Energy:    3067.5983334
N          0.56365        1.94478        0.17998
N         -2.03494        0.53034       -0.20554
N          1.91732       -0.53574        0.18637
N         -0.53925       -1.96763       -0.17959
C          1.81269        2.50214        0.35749
C          1.65680        3.88986        0.48481
C          0.33303        4.18650        0.30356
C         -0.31715        2.98562        0.14532
H          2.37231        4.64746        0.72496
H         -0.12083        5.16748        0.36411
C         -1.81447        2.90661        0.10114
C          2.99023        1.79353        0.49640
C         -3.91254        1.77613       -0.19029
C         -4.29614        0.48392       -0.44213
C         -3.14552       -0.29944       -0.40668
C         -2.53523        1.77658       -0.05693
H         -4.57197        2.63289       -0.15068
H         -5.31319        0.17865       -0.61719
C         -3.10873       -1.68777       -0.49129
C          2.41141       -1.77754        0.03589
C          3.78686       -1.78185        0.12767
C          4.16402       -0.48266        0.34011
C          2.98993        0.27590        0.41213
H          4.44810       -2.63257        0.03255
H          5.18592       -0.13900        0.42448
C         -1.73730       -3.88825       -0.44106
C         -0.40360       -4.21484       -0.42613
C          0.29959       -3.02651       -0.29094
C         -1.80757       -2.48272       -0.35263
H         -2.53559       -4.60554       -0.56284
H          0.01233       -5.21262       -0.50518
C          1.62674       -2.97651       -0.21364
H         -2.35452        3.84812        0.16742
H          2.17198       -3.91477       -0.25246
C         -4.30569       -2.56741       -0.75778
C         -5.54877       -2.57997       -0.21440
C         -6.53898       -3.60505       -0.65905
C         -5.93296       -1.70262        0.86611
N         -6.19648       -0.94834        1.70357
O         -6.25517       -4.41608       -1.53098
O         -7.76521       -3.65001       -0.09531
H         -8.41892       -4.31034       -0.36872
H         -4.10106       -3.35286       -1.47863
C          4.32769        2.41318        0.88473
O          6.72666        3.16097        2.09664
C          6.24298        3.92535        1.27387
O          6.88019        5.09651        1.04983
C          4.94958        3.58305        0.58431
H          6.54582        5.77698        0.45219
C          4.44748        4.51480       -0.39645
N          4.08157        5.27489       -1.18903
H          4.88203        1.77824        1.56286
