10
	Energy:       4.1627271
C          1.73592       -2.69231       -0.15680
N          1.50511       -1.43006        0.53740
H          0.98927       -0.78678       -0.10557
H          2.42645       -0.98752        0.76072
C          2.43976       -3.68314        0.76296
H          2.35596       -2.51823       -1.06415
H          0.75977       -3.12254       -0.46924
H          3.42747       -3.28320        1.07631
H          2.59634       -4.64360        0.22820
H          1.81967       -3.87146        1.66511
