7
	Energy:       3.4363377
C          1.69139       -2.08909       -0.01967
N          1.05710       -0.77837        0.03744
H          0.89082       -0.43703       -0.93710
H          1.70037       -0.10869        0.51871
H          1.01929       -2.80619       -0.53607
H          1.87942       -2.45733        1.01071
H          2.65699       -2.03490       -0.56884
